lehigh_full_onm.dss
clear
set defaultbasefrequency=60
new object=circuit.lehigh basekv=115 pu=1.0001 phases=3 bus1=sourcebus angle=30 mvasc3=20000 mvasc1=21000
edit object=vsource.source basekv=115 bus1=sourcebus.1.2.3 pu=1.00 r1=0 x1=0.0001 r0=0 x0=0.0001
!new object=vsource.secondsource basekv=4.16 bus1=680.1.2.3 pu=1.00 r1=0 x1=0.0001 r0=0 x0=0.0001
new object=transformer.sub phases=3 windings=2 xhl=0.008 buses=[sourcebus.1.2.3,650.1.2.3] conns=[delta,wye] kvs=[115,4.16] kvas=[5000,5000] %rs=[0.0005,0.0005]
new object=transformer.reg1 phases=1 bank=reg1 xhl=0.01 kvas=[1666,1666] buses=[650.1,rg60.1] kvs=[2.4,2.4] %loadloss=0.01
new object=regcontrol.reg1 transformer=reg1 winding=2 vreg=122 band=2 ptratio=20 ctprim=700 r=3 x=9
new object=transformer.reg2 phases=1 bank=reg1 xhl=0.01 kvas=[1666,1666] buses=[650.2,rg60.2] kvs=[2.4,2.4] %loadloss=0.01
new object=regcontrol.reg2 transformer=reg2 winding=2 vreg=122 band=2 ptratio=20 ctprim=700 r=3 x=9
new object=transformer.reg3 phases=1 bank=reg1 xhl=0.01 kvas=[1666,1666] buses=[650.3,rg60.3] kvs=[2.4,2.4] %loadloss=0.01
new object=regcontrol.reg3 transformer=reg3 winding=2 vreg=122 band=2 ptratio=20 ctprim=700 r=3 x=9
new object=transformer.xfm1 phases=3 windings=2 xhl=2 buses=[633.1.2.3,634.1.2.3] conns=[wye,wye] kvs=[4.16,0.480] kvas=[500,500] %rs=[0.55,0.55] xht=1 xlt=1
new object=linecode.mtx601 nphases=3 basefreq=60 rmatrix=[0.3465|0.1560,0.3375|0.1580,0.1535,0.3414] xmatrix=[1.0179|0.5017,1.0478|0.4236,0.3849,1.0348] units=mi
new object=linecode.mtx602 nphases=3 basefreq=60 rmatrix=[0.7526|0.1580,0.7475|0.1560,0.1535,0.7436] xmatrix=[1.1814|0.4236,1.1983|0.5017,0.3849,1.2112] units=mi
new object=linecode.mtx603 nphases=2 basefreq=60 rmatrix=[1.3238|0.2066,1.3294] xmatrix=[1.3569|0.4591,1.3471] units=mi
new object=linecode.mtx604 nphases=2 basefreq=60 rmatrix=[1.3238|0.2066,1.3294] xmatrix=[1.3569|0.4591,1.3471] units=mi
new object=linecode.mtx605 nphases=1 basefreq=60 rmatrix=[1.3292] xmatrix=[1.3475] units=mi
new object=linecode.mtx606 nphases=3 units=mi rmatrix=[0.791721|0.318476,0.781649|0.28345,0.318476,0.791721] xmatrix=[0.438352|0.0276838,0.396697|-0.0184204,0.0276838,0.438352] cmatrix=[383.948|0,383.948|0,0,383.948]
new object=linecode.mtx607 nphases=1 basefreq=60 rmatrix=[1.3425] xmatrix=[0.5124] cmatrix=[236] units=mi
new object=loadshape.solar_634_shape npts=8760 interval=1 useactual=no mult=[0.0,0.0,0.0,0.0,0.0,0.0,0.0,0.0,0.016284954047568526,0.04937396953916975,0.06969751383470184,0.2141726113713903,0.049112783427741225,0.11477170701447953,0.1717037496531122,0.18486100001632413,0.09236520348030493,0.006121549486606049,0.0,0.0,0.0,0.0,0.0,0.0,0.0,0.0,0.0,0.0,0.0,0.0,0.0,0.0,0.04273004782970665,0.10851956447215916,0.15190257758043715,0.005994221257284643,0.3260810656393346,0.11659674496808632,0.4233957459312101,0.2911670121941266,0.15372435070765111,0.013157250363211937,0.0,0.0,0.0,0.0,0.0,0.0,0.0,0.0,0.0,0.0,0.0,0.0,0.0,0.0,0.12532689074258474,0.29220849181344777,0.3882237712009664,0.16453745572079204,0.2926002709805906,0.29181671264630504,0.2384041528591717,0.20700958226546304,0.10865015752787346,0.008599552718784178,0.0,0.0,0.0,0.0,0.0,0.0,0.0,0.0,0.0,0.0,0.0,0.0,0.0,0.0,0.1907246282178945,0.4369447754615648,0.6203757815178178,0.7348863024208687,0.7785272368141823,0.7579457712336146,0.6667526404283453,0.511072658711373,0.2785288692273788,0.05471522551788308,0.0,0.0,0.0,0.0,0.0,0.0,0.0,0.0,0.0,0.0,0.0,0.0,0.0,0.0,0.20739809660621292,0.4627401687915245,0.651120651659348,0.7652426582216489,0.8069312264320344,0.778399908584861,0.6806934491258427,0.5188886530958716,0.28113420068887834,0.05341255978713332,0.0,0.0,0.0,0.0,0.0,0.0,0.0,0.0,0.0,0.0,0.0,0.0,0.0,0.0,0.16388775526861354,0.3880931781452521,0.6083906038296414,0.5452064186486884,0.6163371912698542,0.6357465841753864,0.6382213225811717,0.484235785762092,0.2621165869504889,0.04898219037202697,0.0,0.0,0.0,0.0,0.0,0.0,0.0,0.0,0.0,0.0,0.0,0.0,0.0,0.0,0.16636249367439887,0.16519042099936335,0.590280611828466,0.6770433732186291,0.6063043797646059,0.5805089864346463,0.4893158556293769,0.2501314092623125,0.13210140550776212,0.014071401753211771,0.0,0.0,0.0,0.0,0.0,0.0,0.0,0.0,0.0,0.0,0.0,0.0,0.0,0.0,0.16935960430304114,0.3948676929104295,0.1042197881127671,0.1373120684307612,0.3073213731859808,0.3560456422729721,0.2916893844169836,0.189030183320002,0.1003117909205178,0.011593398521033645,0.0,0.0,0.0,0.0,0.0,0.0,0.0,0.0,0.0,0.0,0.0,0.0,0.0,0.0,0.1740478950031832,0.3995559836105715,0.2141726113713903,0.4555738748592043,0.3568259357808648,0.16662367978582734,0.21365350397492613,0.17873945052971807,0.09262638959173346,0.043771527449027896,0.0,0.0,0.0,0.0,0.0,0.0,0.0,0.0,0.0,0.0,0.0,0.0,0.0,0.0,0.08064121190355703,0.19932091611028585,0.3211315888277641,0.5504170815716874,0.3194371439298715,0.4171436033888898,0.42365693204263866,0.34184364746404605,0.1907246282178945,0.03348079465874402,0.0,0.0,0.0,0.0,0.0,0.0,0.0,0.0,0.0,0.0,0.0,0.0,0.0,0.0,0.21000342806771247,0.4648263928565598,0.650598279436491,0.7625067337044352,0.8036729296919636,0.7785305016405752,0.6875952921203414,0.5353042001991545,0.3177426990319789,0.07829706655348599,0.0,0.0,0.0,0.0,0.0,0.0,0.0,0.0,0.0,0.0,0.0,0.0,0.0,0.0,0.1939796601315725,0.4405948513687785,0.6182895574527824,0.7497379976819732,0.7955957491960365,0.7778775363620039,0.689289737018234,0.5218857637245139,0.3103184838146232,0.07712499387845051,0.0,0.0,0.0,0.0,0.0,0.0,0.0,0.0,0.0,0.0,0.0,0.0,0.0,0.0,0.18981374165428752,0.4356421097308151,0.6134706736969261,0.5659184772849704,0.6281917759023163,0.5712597332636836,0.5155030281264793,0.4112799751873194,0.2440065949493136,0.05901500187727516,0.0,0.0,0.0,0.0,0.0,0.0,0.0,0.0,0.0,0.0,0.0,0.0,0.0,0.0,0.07907736006137872,0.1873357384221094,0.33949950211397506,0.43277559215788697,0.4958291842831257,0.4550547674627402,0.2691490230007019,0.21912535300935373,0.1236324458446922,0.02019295123981782,0.0,0.0,0.0,0.0,0.0,0.0,0.0,0.0,0.0,0.0,0.0,0.0,0.0,0.0,0.04168856821038541,0.1119084542679443,0.5198028044858715,0.6479929479749914,0.7484353319512235,0.7424443755203317,0.6632364224032387,0.5178471734765504,0.3018495241515532,0.07634143554416492,0.0,0.0,0.0,0.0,0.0,0.0,0.0,0.0,0.0,0.0,0.0,0.0,0.0,0.0,0.1726146362167192,0.4011198354527498,0.5657878842292561,0.4785027506162359,0.5624022592598639,0.7322809709593693,0.4425472175517067,0.2021874336832139,0.11321111999869407,0.020454137351246345,0.0,0.0,0.0,0.0,0.0,0.0,0.0,0.0,0.0,0.0,0.0,0.0,0.0,0.0,0.17847826441828954,0.4292593741327804,0.6266279240601379,0.7636788063794707,0.7927292316231084,0.7724056873275763,0.6859041120488417,0.5397345696142608,0.31604825413408644,0.08233565680144958,0.0,0.0,0.0,0.0,0.0,0.0,0.0,0.0,0.0,0.0,0.0,0.0,0.0,0.0,0.19489381152157234,0.4390309995266002,0.6352274767789222,0.7523433291434727,0.7992425602768573,0.7791802020927536,0.6993225485234823,0.5475505639987593,0.32165069622422826,0.08494098826294913,0.0,0.0,0.0,0.0,0.0,0.0,0.0,0.0,0.0,0.0,0.0,0.0,0.0,0.0,0.20557632347899896,0.4609151308379176,0.6464290961328131,0.7569042916142934,0.8292071369104947,0.8079727060513557,0.7180822409768359,0.5492450088966518,0.3379356502717968,0.09262638959173346,0.0,0.0,0.0,0.0,0.0,0.0,0.0,0.0,0.0,0.0,0.0,0.0,0.0,0.0,0.201798919342464,0.4501052906511696,0.6293638485773518,0.7369725264859041,0.7772278359098255,0.7539071809856509,0.6720938964070585,0.5299629442204411,0.3211315888277641,0.08637424704941314,0.0,0.0,0.0,0.0,0.0,0.0,0.0,0.0,0.0,0.0,0.0,0.0,0.0,0.0,0.05197930100066928,0.13014577449844106,0.19710736381592908,0.11255815472012276,0.3263422517507631,0.0870239475015916,0.09080135163812664,0.0013026657307497673,0.0,0.0,0.0,0.0,0.0,0.0,0.0,0.0,0.0,0.0,0.0,0.0,0.0,0.0,0.0,0.0,0.04794071075270572,0.1408282864558677,0.3979921317683932,0.42509019082910265,0.8025008570169281,0.7851744233500383,0.371024665763398,0.3219118823356568,0.18720514536639515,0.04155797515467115,0.0,0.0,0.0,0.0,0.0,0.0,0.0,0.0,0.0,0.0,0.0,0.0,0.0,0.0,0.0541961181214189,0.14056710034443914,0.1633653830457565,0.4065916844871774,0.8578690478133826,0.843405866893028,0.7527351083106155,0.5941886090207154,0.3585203806787574,0.10161445665126756,0.0,0.0,0.0,0.0,0.0,0.0,0.0,0.0,0.0,0.0,0.0,0.0,0.0,0.0,0.2149561697056759,0.473292087693237,0.659586346496025,0.7712336146525408,0.8177410666187825,0.7979398945461075,0.7146933511810509,0.5665714425635416,0.3548703047715437,0.10396186682773144,0.0,0.0,0.0,0.0,0.0,0.0,0.0,0.0,0.0,0.0,0.0,0.0,0.0,0.0,0.2047927651447134,0.4523188429455264,0.6292332555216376,0.7374916338823683,0.7819161266099676,0.7605511026951142,0.6829070014201994,0.5449452325372598,0.3406715747890106,0.10044238397623206,0.0,0.0,0.0,0.0,0.0,0.0,0.0,0.0,0.0,0.0,0.0,0.0,0.0,0.0,0.13587880964429716,0.3114905564896587,0.3590394880752216,0.5329600548490834,0.5966633474265005,0.5717821054865406,0.5205830979937641,0.382882515222253,0.2344961556669224,0.06696158931748804,0.0,0.0,0.0,0.0,0.0,0.0,0.0,0.0,0.0,0.0,0.0,0.0,0.0,0.0,0.16154360991854255,0.3774106661878254,0.3656834097846847,0.6792601903393787,0.7166489821903721,0.5199301327151928,0.07217225224048711,0.5054702166212311,0.2985912274114824,0.08402683687294928,0.0,0.0,0.0,0.0,0.0,0.0,0.0,0.0,0.0,0.0,0.0,0.0,0.0,0.0,0.045727158458348974,0.07360551102695115,0.11099430287794446,0.1715731565973979,0.13548703047715438,0.09405964837819747,0.09536231410894724,0.03699701268385053,0.01902087856478232,0.0003917791671427872,0.0,0.0,0.0,0.0,0.0,0.0,0.0,0.0,0.0,0.0,0.0,0.0,0.0,0.0,0.2152173558171044,0.3902936711340375,0.6527759186405263,0.5841949754321814,0.6588419660784538,0.7949427839174651,0.64836840301017,0.5780342480288609,0.3557844561615436,0.112688747775837,0.0,0.0,0.0,0.0,0.0,0.0,0.0,0.0,0.0,0.0,0.0,0.0,0.0,0.0,0.2044042508039635,0.4519270637783835,0.6323609592059941,0.7407499306224391,0.7860853099136453,0.7699309489217908,0.6933283272661975,0.4450219559574919,0.2961164890056971,0.1119084542679443,0.0,0.0,0.0,0.0,0.0,0.0,0.0,0.0,0.0,0.0,0.0,0.0,0.0,0.0,0.06383388563313146,0.1958046980851793,0.33337795262736897,0.3374165428753326,0.4340782578886367,0.4099773094565696,0.3701137791997911,0.2662857702541667,0.1633653830457565,0.046899231133384484,0.0,0.0,0.0,0.0,0.0,0.0,0.0,0.0,0.0,0.0,0.0,0.0,0.0,0.0,0.21508676276139013,0.4727729802967727,0.6700109371684161,0.7849132372386097,0.8333763202141725,0.8189164041202109,0.73553926769944,0.5928859432899656,0.3692028926361841,0.1232406666775494,0.0,0.0,0.0,0.0,0.0,0.0,0.0,0.0,0.0,0.0,0.0,0.0,0.0,0.0,0.21586705626928288,0.4602654303857393,0.6384825086926003,0.7481741458397949,0.7928598246788227,0.7806134608792178,0.7068773567965523,0.5721738846536835,0.3690722995804698,0.12558481202762042,0.0,0.0,0.0,0.0,0.0,0.0,0.0,0.0,0.0,0.0,0.0,0.0,0.0,0.0,0.21430320442710454,0.18590247963564535,0.43603388889795786,0.5418175288529031,0.6182895574527824,0.6056546793124274,0.5217551706687997,0.14942783917465188,0.108000457075695,0.07126136567688013,0.0,0.0,0.0,0.0,0.0,0.0,0.0,0.0,0.0,0.0,0.0,0.0,0.0,0.0,0.0,0.16558220016650613,0.44645521474395605,0.626105551837281,0.8157887004358543,0.815135735157283,0.7468714801090451,0.6073458593839272,0.38327102956300296,0.13483406519858307,0.0,0.0,0.0,0.0,0.0,0.0,0.0,0.0,0.0,0.0,0.0,0.0,0.0,0.0,0.1547690951533652,0.41271323397378346,0.6173786708891754,0.7844039243213241,0.6968478101176969,0.7833493853964315,0.7012096181785533,0.5973163127050719,0.2308493445861016,0.11229696860869423,0.0,0.0,0.0,0.0,0.0,0.0,0.0,0.0,0.0,0.0,0.0,0.0,0.0,0.0,0.11386082045087252,0.15111901924615154,0.11386082045087252,0.1715731565973979,0.113599634339444,0.4743335673125582,0.4319952986499943,0.3135735157283012,0.10891134363930198,0.014982288316818753,0.0,0.0,0.0,0.0,0.0,0.0,0.0,0.0,0.0,0.0,0.0,0.0,0.0,0.0,0.008468959663069915,0.05471522551788308,0.08559068871512758,0.3062798935666596,0.368680520413327,0.1717037496531122,0.2486981504758484,0.10838897141644492,0.06578951664245253,0.12389363195612073,0.0,0.0,0.0,0.0,0.0,0.0,0.0,0.0,0.0,0.0,0.0,0.0,0.0,0.0,0.05393493200999037,0.05132960054849083,0.19906299482525014,0.3899149512724661,0.3576062292887576,0.4473693661339558,0.488927341288627,0.5896309113762875,0.3811880703243605,0.13678969620790415,0.0,0.0,0.0,0.0,0.0,0.0,0.0,0.0,0.0,0.0,0.0,0.0,0.0,0.0,0.0432524200525637,0.10982223020290896,0.20544573042328476,0.7651120651659348,0.287128421946163,0.2855645701039847,0.32412543463001353,0.2438760018935993,0.005994221257284643,0.12714866386979873,0.0,0.0,0.0,0.0,0.0,0.0,0.0,0.0,0.0,0.0,0.0,0.0,0.0,0.0,0.06917514161184478,0.30745196624169513,0.6645390881339884,0.7932516038459654,0.8374149104621361,0.8333763202141725,0.7572960707814361,0.6164677843255685,0.3990368762141073,0.15046931879397313,0.0,0.0,0.0,0.0,0.0,0.0,0.0,0.0,0.0,0.0,0.0,0.0,0.0,0.02201798919342464,0.25364762728741896,0.5062537749555167,0.6935895133776262,0.803411743580535,0.8494000881503124,0.83168187531628,0.7561207332800078,0.6180283713413539,0.41271323397378346,0.15815472012275747,0.0,0.0,0.0,0.0,0.0,0.0,0.0,0.0,0.0,0.0,0.0,0.0,0.0,0.02240650353417457,0.2445289671721706,0.25381413343345466,0.4885943289965556,0.4014234643072854,0.4502881209291695,0.4562366346169542,0.597812566316786,0.4457467474167061,0.3982533178798217,0.15333583636690118,0.0,0.0,0.0,0.0,0.0,0.0,0.0,0.0,0.0,0.0,0.0,0.0,0.0,0.02827013173574495,0.25703325225681123,0.5063843680112311,0.704924990613624,0.7902544932173231,0.8335069132698869,0.7002334350870892,0.6640167159111313,0.5089896994727305,0.4019001289606425,0.08676276139016308,0.0,0.0,0.0,0.0,0.0,0.0,0.0,0.0,0.0,0.0,0.0,0.0,0.0,0.0005223722228570497,0.1427839174651888,0.3268613591472273,0.4619598752836318,0.5259243539724775,0.6207642958585677,0.6569810150345254,0.4369447754615648,0.3843157740087171,0.2724073197407728,0.09236520348030493,0.0,0.0,0.0,0.0,0.0,0.0,0.0,0.0,0.0,0.0,0.0,0.0,0.0,0.0062521425423203115,0.2300690510782089,0.4613069100050604,0.6464290961328131,0.7592484369643644,0.8061476680977488,0.7937707112424296,0.7238152761226921,0.5850699489054669,0.3744135555591831,0.144736283648117,0.0,0.0,0.0,0.0,0.0,0.0,0.0,0.0,0.0,0.0,0.0,0.0,0.0,0.0,0.034261088166636734,0.04859367603127704,0.1541161298747939,0.21560587015785435,0.22993845802249466,0.27839827617166457,0.17730619174325404,0.15385494376336534,0.16375716221289932,0.060840039830882,0.0,0.0,0.0,0.0,0.0,0.0,0.0,0.0,0.0,0.0,0.0,0.0,0.0,0.0,0.00377740413653504,0.16805693857229145,0.29898300657862514,0.3870516985259309,0.5853311350168954,0.6688355996669877,0.523319022510978,0.6473432475228129,0.2442677810607421,0.08363832253219934,0.0,0.0,0.0,0.0,0.0,0.0,0.0,0.0,0.0,0.0,0.0,0.0,0.0,0.027489838227852236,0.08532950260369904,0.18395011345271714,0.3242560276857278,0.44879936009402704,0.8680291875479521,0.8380646109143146,0.7635482133237566,0.6275388106237451,0.4233957459312101,0.17079286308950525,0.0,0.0,0.0,0.0,0.0,0.0,0.0,0.0,0.0,0.0,0.0,0.0,0.0,0.035175239556636574,0.2609445142754534,0.5046899231133384,0.6793875185686999,0.7860885747400381,0.8239964739874956,0.8077115199399272,0.7386637065574038,0.606826751987463,0.4099773094565696,0.1662319006186846,0.0,0.0,0.0,0.0,0.0,0.0,0.0,0.0,0.0,0.0,0.0,0.0,0.0,0.032047535872279986,0.09927031130119657,0.41531856543528295,0.5019539985961247,0.7763136845198256,0.817091366166604,0.8026314500726424,0.7328033431822263,0.6014854960087497,0.40698346365432014,0.15802412706704322,0.0,0.0,0.0,0.0,0.0,0.0,0.0,0.0,0.0,0.0,0.0,0.0,0.0,0.014198729982533178,0.05276285933495487,0.2596385837183108,0.2442677810607421,0.3372859498196183,0.4630013549029529,0.3775412592435397,0.4816304543005925,0.2373626732398505,0.07399729019409393,0.00013059305571426242,0.0,0.0,0.0,0.0,0.0,0.0,0.0,0.0,0.0,0.0,0.0,0.0,0.0,0.0,0.006774514765177361,0.003385624969392252,0.04077768164677843,0.2644607323005599,0.1835583342855744,0.4235263389869243,0.4594851368778465,0.30419366950162424,0.033350201603029754,0.15632968216915066,0.0,0.0,0.0,0.0,0.0,0.0,0.0,0.0,0.0,0.0,0.0,0.0,0.0,0.047029824189098735,0.2946832302192331,0.5578412967890433,0.747263259276188,0.8652932630307384,0.9084150900275876,0.8591717135441324,0.7850438302943241,0.6464290961328131,0.44371929022674217,0.18759692453353796,0.0,0.0,0.0,0.0,0.0,0.0,0.0,0.0,0.0,0.0,0.0,0.0,0.0,0.049765748706312535,0.2889534598997698,0.5312656099511908,0.7042720253350527,0.8092753717821055,0.8512251261039194,0.8335069132698869,0.7604205096393999,0.6279305897908878,0.4297817463556375,0.1809530028240748,0.0,0.0,0.0,0.0,0.0,0.0,0.0,0.0,0.0,0.0,0.0,0.0,0.0,0.03308901549160123,0.26159421472763184,0.4103690886237124,0.5668326286749702,0.6875952921203414,0.6879870712874843,0.6882482573989127,0.4125826409180692,0.2890840529554841,0.3963009516968935,0.17365938066243328,0.0,0.0,0.0,0.0,0.0,0.0,0.0,0.0,0.0,0.0,0.0,0.0,0.0,0.01889028550906805,0.16089064463997127,0.3615174913073997,0.4316035194828515,0.5259243539724775,0.5132862110057298,0.6334024388253154,0.4708173492874516,0.2377544524069932,0.07438906936123671,0.0737361040826654,0.0,0.0,0.0,0.0,0.0,0.0,0.0,0.0,0.0,0.0,0.0,0.0,0.0,0.04038590247963564,0.19801825037953605,0.2668048776506309,0.4420281101552425,0.613859188037676,0.605393493200999,0.5570610032811505,0.4822834195791639,0.4663869798723453,0.27071287484288026,0.06279240601381021,0.0,0.0,0.0,0.0,0.0,0.0,0.0,0.0,0.0,0.0,0.0,0.0,0.0,0.021495616970567587,0.11920207642958584,0.31422648100687245,0.3242560276857278,0.4058113909792847,0.4938768181001975,0.5734765503844332,0.5062537749555167,0.44841084575327705,0.32517017907572765,0.10096475619908912,0.0,0.0,0.0,0.0,0.0,0.0,0.0,0.0,0.0,0.0,0.0,0.0,0.0,0.058104115313668186,0.2936417505999118,0.5265773192510488,0.6933283272661975,0.7873879756443951,0.8522633408968477,0.8272547707275665,0.7442661486475456,0.6001828302779999,0.39265087578967983,0.17053167697807667,0.0,0.0,0.0,0.0,0.0,0.0,0.0,0.0,0.0,0.0,0.0,0.0,0.0,0.06357596434809579,0.3146149953476224,0.5674823291271487,0.7499991837934018,0.8616431871235246,0.9046376858910528,0.8869194730570201,0.7273314941477986,0.6677941200476665,0.4239181181540671,0.20349009941396365,0.0,0.0,0.0,0.0,0.0,0.0,0.0,0.0,0.0,0.0,0.0,0.0,0.0,0.061881519450203225,0.28765079416902,0.4908797074715552,0.7513018495241516,0.8512251261039194,0.8874418452798772,0.8620349662906673,0.7688894693024698,0.5980966062129646,0.3982533178798217,0.17118137743025513,0.0,0.0,0.0,0.0,0.0,0.0,0.0,0.0,0.0,0.0,0.0,0.0,0.0,0.06578951664245253,0.029442204410780458,0.575167730455933,0.2519531823895264,0.3084934458610163,0.42548196999624543,0.9101095349254804,0.8121418893550335,0.6700109371684161,0.4499746975954553,0.20270980590607093,0.0,0.0,0.0,0.0,0.0,0.0,0.0,0.0,0.0,0.0,0.0,0.0,0.0,0.07282521751905842,0.3239981064006921,0.5630552245384352,0.7300674186650125,0.83168187531628,0.836141628168922,0.8169934213748185,0.7795719812598965,0.649687392872884,0.4511467702704908,0.20349009941396365,0.0,0.0,0.0,0.0,0.0,0.0,0.0,0.0,0.0,0.0,0.0,0.0,0.0,0.07725232210777191,0.3424966127426174,0.5921056497820728,0.7746225044483259,0.8837917693726637,0.9257415236944776,0.9045070928353384,0.825037953606817,0.6623222710132389,0.4636510553551315,0.2123508382441764,0.010813105013140926,0.0,0.0,0.0,0.0,0.0,0.0,0.0,0.0,0.0,0.0,0.0,0.0,0.07816647349777175,0.3341582461352617,0.5806395794903606,0.7511712564684373,0.8492694950945984,0.8546107510733115,0.8370231312949933,0.7604205096393999,0.6224587407564602,0.4344700370557795,0.19567410502946506,0.007424215217355817,0.0,0.0,0.0,0.0,0.0,0.0,0.0,0.0,0.0,0.0,0.0,0.0,0.07686380776702198,0.3004162653650892,0.5689155879136126,0.7427022968053673,0.8410617215429569,0.8744119231459866,0.8626879315692388,0.7475244453876164,0.6152924468241401,0.42587374916338827,0.19098581432932304,0.006643921709463099,0.0,0.0,0.0,0.0,0.0,0.0,0.0,0.0,0.0,0.0,0.0,0.0,0.08064121190355703,0.3299890628315839,0.5659184772849704,0.7390554857245466,0.84015083497935,0.8847059207626634,0.8695930393901303,0.7937707112424296,0.6606310909417392,0.4463246216882417,0.20349009941396365,0.011723991576747906,0.0,0.0,0.0,0.0,0.0,0.0,0.0,0.0,0.0,0.0,0.0,0.0,0.07334432491552262,0.2836122039210565,0.5657878842292561,0.6582836807652752,0.8310321748641015,0.8628152597985602,0.8422370590443853,0.7656311725623989,0.6264973310044238,0.32087040271633555,0.1958046980851793,0.009902218449533946,0.0,0.0,0.0,0.0,0.0,0.0,0.0,0.0,0.0,0.0,0.0,0.0,0.08207447069002105,0.3210009957720498,0.4349924092786365,0.5035178504383029,0.5349124210320116,0.7837411645635743,0.8470559428002415,0.5226660572324067,0.6182895574527824,0.4194877487389608,0.19359114579082254,0.008857474003819846,0.0,0.0,0.0,0.0,0.0,0.0,0.0,0.0,0.0,0.0,0.0,0.0,0.06995869994613038,0.2510422958259195,0.4841051927063778,0.7200346071597643,0.825560325829674,0.658153087709561,0.7196428279926215,0.6219363685336032,0.565268776832792,0.4103690886237124,0.1963270703080364,0.01107429112456945,0.0,0.0,0.0,0.0,0.0,0.0,0.0,0.0,0.0,0.0,0.0,0.0,0.06122855417163193,0.21860298078649665,0.219255946065068,0.12467392546401344,0.33572209797743996,0.4553159535741687,0.8466641636330988,0.7707145072560766,0.6401769535904928,0.4467164008553845,0.20088476795246413,0.014459916093961703,0.0,0.0,0.0,0.0,0.0,0.0,0.0,0.0,0.0,0.0,0.0,0.0,0.09470934883037596,0.3437992784733672,0.5738650647251832,0.5564080380025792,0.8375455035178504,0.8682903736593806,0.8551331232961686,0.7828302779999673,0.6519009451672407,0.4575295058685255,0.2090925415041055,0.017065247555461238,0.0,0.0,0.0,0.0,0.0,0.0,0.0,0.0,0.0,0.0,0.0,0.0,0.09887853213405376,0.34301572013908155,0.5624022592598639,0.7167795752460863,0.8314239540312444,0.8483749326629556,0.7182324229909075,0.6727468616856298,0.6436931716155992,0.4387698134151716,0.2085734341076413,0.016934654499746973,0.0,0.0,0.0,0.0,0.0,0.0,0.0,0.0,0.0,0.0,0.0,0.0,0.097575866403304,0.336632984541047,0.4921823732023049,0.5330906479047975,0.6835599666987708,0.7619843614815781,0.6812125565223068,0.6624528640689531,0.565268776832792,0.2777485757194861,0.13314288512708336,0.006643921709463099,0.0,0.0,0.0,0.0,0.0,0.0,0.0,0.0,0.0,0.0,0.0,0.0,0.013549029530354723,0.0565402634714899,0.08936809285166261,0.16844545291304133,0.09028224424166244,0.05992588844088216,0.20557632347899896,0.284784276596092,0.02162621002628185,0.16115183075139974,0.07647202859987919,0.00013059305571426242,0.0,0.0,0.0,0.0,0.0,0.0,0.0,0.0,0.0,0.0,0.0,0.0,0.05393493200999037,0.1677957524608629,0.26849932254852343,0.2515614032223837,0.3764965147978256,0.3062798935666596,0.28803930850976994,0.3144876671183009,0.3030215968265887,0.09353727615534042,0.0432524200525637,0.0,0.0,0.0,0.0,0.0,0.0,0.0,0.0,0.0,0.0,0.0,0.0,0.0,0.016023767936139997,0.06787247588109503,0.2533864411759905,0.3669860755154344,0.619461630127818,0.8205814655805678,0.6865538125010202,0.6672717478248094,0.6240225925986385,0.2724073197407728,0.13079873977701234,0.007815994384498605,0.0,0.0,0.0,0.0,0.0,0.0,0.0,0.0,0.0,0.0,0.0,0.0,0.1158164514601936,0.12571540508333467,0.3861375471359311,0.6125565223069263,0.8703733328980231,0.7344912584273331,0.8701382653977374,0.7241646125467278,0.692156254591162,0.2540394064545618,0.12819014348911995,0.0105519189017124,0.0,0.0,0.0,0.0,0.0,0.0,0.0,0.0,0.0,0.0,0.0,0.0,0.1380923619386539,0.4180544899524968,0.6621916779575245,0.8361122447313863,0.8820222334677352,0.9189735385820856,0.7688470265593627,0.777782856396611,0.7126103919424085,0.5010431120325177,0.2344961556669224,0.02553420721853115,0.0,0.0,0.0,0.0,0.0,0.0,0.0,0.0,0.0,0.0,0.0,0.0,0.13639791704076135,0.4030754664620708,0.6296250346887804,0.7842602719600384,0.8699815537308804,0.8938245808779117,0.8871806591684486,0.7997649324997143,0.6597169395517394,0.4652149071973097,0.2260304608302453,0.02436213454349565,0.0,0.0,0.0,0.0,0.0,0.0,0.0,0.0,0.0,0.0,0.0,0.0,0.13470673696926164,0.3917399892260729,0.6095626765046768,0.7912959728366444,0.8843141415955206,0.4887967482329127,0.905809758566088,0.8219102499224604,0.6866844055567345,0.4721200150182014,0.23137171680895866,0.02905042524363767,0.0,0.0,0.0,0.0,0.0,0.0,0.0,0.0,0.0,0.0,0.0,0.0,0.13275110595994058,0.3848348814051813,0.6056546793124274,0.7621149545372924,0.4094582020601055,0.6971057314027327,0.7098744674251947,0.5340015344684047,0.3410633539561533,0.2653716188641669,0.13092606800633375,0.012376956855319218,0.0,0.0,0.0,0.0,0.0,0.0,0.0,0.0,0.0,0.0,0.0,0.0,0.014721102205390229,0.03256990809513705,0.03569434695310077,0.1208965213274784,0.268760508659952,0.3685499273576128,0.4740756460275225,0.3740217763920404,0.3701137791997911,0.17548115378964724,0.08806542712091284,0.005602442090141857,0.0,0.0,0.0,0.0,0.0,0.0,0.0,0.0,0.0,0.0,0.0,0.0,0.005733035145856119,0.024623320654924168,0.09223461042459068,0.14317243180593872,0.1482525016732235,0.15841590623418594,0.10891134363930198,0.12297948056612087,0.10591423301065966,0.057842929202239664,0.026706279893566658,0.0,0.0,0.0,0.0,0.0,0.0,0.0,0.0,0.0,0.0,0.0,0.0,0.0,0.0024747384057852728,0.0023441453500710092,0.04129678904324262,0.06956692077898757,0.12337125973326367,0.0885877993437699,0.1057836399549454,0.06357596434809579,0.1297572601576911,0.10747808485283797,0.05197930100066928,0.0013026657307497673,0.0,0.0,0.0,0.0,0.0,0.0,0.0,0.0,0.0,0.0,0.0,0.0,0.14108947256729626,0.3849654744608955,0.5927553502342512,0.7384057852723681,0.4636510553551315,0.4013810215641783,0.5379095316606539,0.4226154524233173,0.6688355996669877,0.22029742568438926,0.2273331265609951,0.030483684030101692,0.0,0.0,0.0,0.0,0.0,0.0,0.0,0.0,0.0,0.0,0.0,0.0,0.039213829804600135,0.19254640134510845,0.3870516985259309,0.44371929022674217,0.3873096198109665,0.4224848593676031,0.4966127426174114,0.4262622635041382,0.5716515124308265,0.3272531383143701,0.1677957524608629,0.02332065492417441,0.0,0.0,0.0,0.0,0.0,0.0,0.0,0.0,0.0,0.0,0.0,0.0,0.15632968216915066,0.4081555363293557,0.5582330759561861,0.6543756835730259,0.7647202859987919,0.8002873047225714,0.7683670970796128,0.6991919554677679,0.5707406258672195,0.33611061231818995,0.17118137743025513,0.025011834995674102,0.0,0.0,0.0,0.0,0.0,0.0,0.0,0.0,0.0,0.0,0.0,0.0,0.15124961230186584,0.3505737932385445,0.44267781060742095,0.4980460014038754,0.522408135947371,0.5810313586575034,0.7020584730406961,0.5964021613150721,0.3444489789255456,0.19020225599503746,0.09445142754534028,0.010032811505248207,0.0,0.0,0.0,0.0,0.0,0.0,0.0,0.0,0.0,0.0,0.0,0.0,0.07464699064627238,0.18160596810264606,0.2873896080575915,0.7716253938196836,0.8527857131197049,0.8903050980264124,0.8659462283093097,0.7948154556881437,0.6615419775053462,0.4558350609706329,0.10904193669501623,0.032047535872279986,0.0,0.0,0.0,0.0,0.0,0.0,0.0,0.0,0.0,0.0,0.0,0.0,0.15698264744772195,0.3920011753375014,0.3633392644346137,0.5069034754076952,0.6504676863807767,0.8514863122153479,0.8242576600989242,0.75156303563558,0.6277999967351736,0.44645521474395605,0.13001518144272678,0.01862909939763953,0.0,0.0,0.0,0.0,0.0,0.0,0.0,0.0,0.0,0.0,0.0,0.0,0.026706279893566658,0.13561762353286866,0.23684030101699344,0.2580779967025253,0.3801465907050393,0.5484614505623664,0.6010937168416071,0.5835060970632886,0.6615419775053462,0.3112293703782301,0.10122594231051762,0.013287843418926198,0.0,0.0,0.0,0.0,0.0,0.0,0.0,0.0,0.0,0.0,0.0,0.0,0.17574233990107574,0.4402030722016356,0.6631058293475244,0.8181328457859253,0.9077621247490164,0.9424182569091888,0.9176643431985504,0.8361122447313863,0.6990613624120537,0.4980460014038754,0.2479145921415629,0.03699701268385053,0.0,0.0,0.0,0.0,0.0,0.0,0.0,0.0,0.0,0.0,0.0,0.0018250379536068173,0.17951974403761078,0.428087301457745,0.6431740642191351,0.7718865799311122,0.8615158588942032,0.8948660604972329,0.9037235345010528,0.7941624904095724,0.6614113844496318,0.4715976427953444,0.2402291908127785,0.0382996784146003,0.0,0.0,0.0,0.0,0.0,0.0,0.0,0.0,0.0,0.0,0.0,0.006643921709463099,0.1879887037006807,0.4411139587652426,0.6522927243343836,0.7996343394440001,0.8802755513475571,0.9048956071760884,0.7636428932891494,0.7506227656344374,0.6814737426337354,0.4884049690657699,0.25091170277020514,0.04077768164677843,0.0,0.0,0.0,0.0,0.0,0.0,0.0,0.0,0.0,0.0,0.0,0.0048188837558562824,0.16219331037072104,0.3130544083318369,0.4725117941853442,0.5312656099511908,0.6608890122267748,0.5676129221828629,0.7450497069818313,0.4043781321928206,0.4227460454790317,0.4616986891722033,0.22628838211528104,0.03686968445452913,0.0,0.0,0.0,0.0,0.0,0.0,0.0,0.0,0.0,0.0,0.0,0.0,0.15007753962683035,0.23162963809399434,0.21547527710214007,0.2381429667477432,0.3781909596957181,0.4932238528216262,0.2939029367113404,0.27553502342512937,0.28308983169819946,0.17574233990107574,0.053281966731419064,0.021756803081996116,0.0,0.0,0.0,0.0,0.0,0.0,0.0,0.0,0.0,0.0,0.0,0.0,0.060187074552310676,0.1799115232047536,0.17053167697807667,0.6997469759545536,0.9252191514716204,0.8106629229990695,0.9166228635792292,0.7842015050849671,0.7057052841215168,0.5045593300576242,0.2494784439837412,0.04090827470249269,0.0,0.0,0.0,0.0,0.0,0.0,0.0,0.0,0.0,0.0,0.0,0.014721102205390229,0.2075286896619272,0.4782448293312003,0.7150851303481937,0.8757145888767364,0.9704272025335052,1.0,0.96795246412772,0.8772784407189148,0.7116995053788014,0.3763659217421113,0.20583750959042751,0.04403271356045642,0.0,0.0,0.0,0.0,0.0,0.0,0.0,0.0,0.0,0.0,0.0,0.015374067483961541,0.20818165494049853,0.4700370557795589,0.6905924027489838,0.8398896488679215,0.9275665616480844,0.9557061003281149,0.9266524102580844,0.8439282391158849,0.7036223248828742,0.4900994139636625,0.254558513851026,0.04520478623549193,0.0,0.0,0.0,0.0,0.0,0.0,0.0,0.0,0.0,0.0,0.0,0.018109992001175336,0.21404201831567607,0.4723812011296299,0.6782154458936646,0.8185246249530681,0.8976019850144468,0.9215723403907996,0.8926525082028763,0.8150084069279616,0.6859041120488417,0.4928353384808762,0.25495029301816874,0.04403271356045642,0.0,0.0,0.0,0.0,0.0,0.0,0.0,0.0,0.0,0.0,0.0,0.019412657731925104,0.21013402112342675,0.465345500253024,0.6766548588778791,0.819435511516675,0.7885600483194306,0.9360322564847614,0.910367456210516,0.8333763202141725,0.6991919554677679,0.4882743760100557,0.2532558481202762,0.04455508578331347,0.0,0.0,0.0,0.0,0.0,0.0,0.0,0.0,0.0,0.0,0.0,0.02058473040696061,0.20349009941396365,0.4486720318647056,0.4597430581628822,0.4125826409180692,0.4641734275779885,0.20870076233696272,0.651120651659348,0.8123998106400692,0.6701415302241303,0.4755089048139864,0.2387959320263145,0.04533537929120618,0.0,0.0,0.0,0.0,0.0,0.0,0.0,0.0,0.0,0.0,0.0,0.0199317651283893,0.19749914298307186,0.284784276596092,0.5088591064170163,0.7868688682479309,0.6766548588778791,0.9050262002318026,0.8768866615517719,0.8058864819863203,0.6801710769029856,0.4920517801465907,0.2510422958259195,0.0459883445697775,0.0,0.0,0.0,0.0,0.0,0.0,0.0,0.0,0.0,0.0,0.0,0.023190061868460145,0.2010153610081784,0.432387077817137,0.5149806559036223,0.6263667379487096,0.2750126512022723,0.5919750567263585,0.7488271111183662,0.6272776245123165,0.36503370933250623,0.23684030101699344,0.11073311676651594,0.04233826866256386,0.0,0.0,0.0,0.0,0.0,0.0,0.0,0.0,0.0,0.0,0.0,0.019412657731925104,0.03413375993731533,0.13718147537504696,0.17847826441828954,0.22068920485153198,0.4198795279061036,0.6223281477007461,0.3693334856918983,0.3475766826099022,0.2098760998383911,0.17548115378964724,0.1057836399549454,0.0459883445697775,0.0,0.0,0.0,0.0,0.0,0.0,0.0,0.0,0.0,0.0,0.0,0.01250754991103348,0.07178047307334433,0.4609151308379176,0.4902300070193768,0.5833755040075743,0.619073115787068,0.5838978762304314,0.6571116080902398,0.5868949868590737,0.5493756019523661,0.3804045119900749,0.24517866762434906,0.0498963417620268,0.0,0.0,0.0,0.0,0.0,0.0,0.0,0.0,0.0,0.0,0.0,0.0013026657307497673,0.012115770743890692,0.04924337648345549,0.07594965637702215,0.07868558089423594,0.12558481202762042,0.1550270164384009,0.3615174913073997,0.3185262573662645,0.241401263487814,0.15620235393982926,0.04468567883902773,0.0,0.0,0.0,0.0,0.0,0.0,0.0,0.0,0.0,0.0,0.0,0.0,0.031528428475815794,0.2304575654189588,0.4821528265234497,0.6715715241842015,0.8039341158033921,0.8830114758647708,0.9078927178047308,0.8815782170783069,0.8109698166799979,0.6809513704108784,0.495048890775233,0.2623745082355245,0.05080722832563378,0.0,0.0,0.0,0.0,0.0,0.0,0.0,0.0,0.0,0.0,0.0,0.034261088166636734,0.2305881584746731,0.4675623173737736,0.6578951664245253,0.7906462723844659,0.7205569793826213,0.9009876099838392,0.8667265218172023,0.7952039700288936,0.6645390881339884,0.1492972461189376,0.2584665110432753,0.052893452390669116,0.0,0.0,0.0,0.0,0.0,0.0,0.0,0.0,0.0,0.0,0.0,0.035175239556636574,0.23827355980345746,0.4968739287288398,0.7079188364158735,0.8539577857947402,0.938245808779118,0.9622161641554708,0.8242576600989242,0.652553910445812,0.7199040141040499,0.5149806559036223,0.22290275714588875,0.05302078061999052,0.0,0.0,0.0,0.0,0.0,0.0,0.0,0.0,0.0,0.0,0.0,0.03699701268385053,0.2402291908127785,0.4962209634502686,0.7054473628364811,0.8036500759072136,0.9366852217633328,0.83207038965703,0.8168236504023898,0.8012406340292855,0.7175598687539789,0.5185001387551217,0.16519042099936335,0.05406552506570463,0.0,0.0,0.0,0.0,0.0,0.0,0.0,0.0,0.0,0.0,0.0,0.038560864526028825,0.2411400773763855,0.4787639367276645,0.6925480337583049,0.8348095790006366,0.917011377919979,0.9407238120112964,0.9144060464584794,0.8322042475391371,0.4702949770645946,0.4915326727501265,0.2598997698297393,0.057842929202239664,0.0,0.0,0.0,0.0,0.0,0.0,0.0,0.0,0.0,0.0,0.0,0.04064708859106417,0.2427039292185638,0.4803277885698428,0.6714441959548799,0.8027620431283566,0.8775396268303433,0.8986434646337681,0.7832187923407172,0.8052367815341418,0.6740495274163796,0.493093259765912,0.2682381364370949,0.059145594932989425,0.0,0.0,0.0,0.0,0.0,0.0,0.0,0.0,0.0,0.0,0.0,0.04155797515467115,0.2480451851972771,0.4856690445485562,0.6931977342104834,0.8303792095855302,0.907631531693302,0.9351213699211544,0.909978941869766,0.6344439184446367,0.7037496531121957,0.5091202925284448,0.2678463572699521,0.057973522257953936,0.0,0.0,0.0,0.0,0.0,0.0,0.0,0.0,0.0,0.0,0.0,0.02188739613771037,0.0915849099724122,0.2957279746649472,0.5057314027326596,0.6366574707389934,0.6795213764508071,0.7150851303481937,0.8529163061754191,0.7767054636869685,0.6507288724922052,0.4727729802967727,0.2526061476680977,0.0565402634714899,0.0,0.0,0.0,0.0,0.0,0.0,0.0,0.0,0.0,0.0,0.0,0.04233826866256386,0.1646680487765063,0.35695652883657913,0.4881437829543414,0.4631319479586672,0.8014593773976069,0.4104996816794266,0.7774857571948611,0.5024731059925889,0.4616986891722033,0.2695408021678447,0.14043650728872492,0.04520478623549193,0.0,0.0,0.0,0.0,0.0,0.0,0.0,0.0,0.0,0.0,0.0,0.012638142966747742,0.08129091235573548,0.3873096198109665,0.28634812843827023,0.5581024829004717,0.6489038345385983,0.6616725705610604,0.3181344781991217,0.3121402569418371,0.3126626291646941,0.22589986777453105,0.12858192265626275,0.0382996784146003,0.0,0.0,0.0,0.0,0.0,0.0,0.0,0.0,0.0,0.0,0.0,0.045074193179777663,0.11907148337387158,0.34353809236193866,0.4768115705447362,0.3156597397933365,0.7183434270882646,0.7613313962030069,0.5889779460977163,0.5173248012536933,0.3396300951696893,0.2378850454627075,0.12193800094679964,0.04038590247963564,0.0,0.0,0.0,0.0,0.0,0.0,0.0,0.0,0.0,0.0,0.0,0.0013026657307497673,0.1212883004946212,0.028792503958602007,0.04429389967188495,0.1701398978109339,0.3434074993062244,0.4430695897745637,0.35031260712711604,0.31513736757047944,0.3585203806787574,0.29077523302698377,0.16492923488793484,0.04742160335624153,0.0,0.0,0.0,0.0,0.0,0.0,0.0,0.0,0.0,0.0,0.0,0.0,0.14577776326743827,0.1541161298747939,0.14773339427675933,0.5810313586575034,0.4902300070193768,0.2877813872247343,0.36685874728611306,0.2395762255342072,0.20961491372696253,0.1961964772523221,0.0498963417620268,0.027359245172137968,0.0,0.0,0.0,0.0,0.0,0.0,0.0,0.0,0.0,0.0,0.0,0.012896064251783409,0.03960234414535007,0.0979676455704468,0.3682887412461842,0.8338954276106367,0.902812647937446,0.9286080412674056,0.7975513802053575,0.8357204655642436,0.7057052841215168,0.5028648851597316,0.27488205814655803,0.062400626846667424,0.0,0.0,0.0,0.0,0.0,0.0,0.0,0.0,0.0,0.0,0.0,0.050546042214205264,0.26302747351409583,0.4968739287288398,0.6773045593300576,0.8027620431283566,0.8740234088052368,0.8923913220914477,0.8629491176806673,0.7888212344308589,0.6634943436882743,0.4861914167714132,0.26524102580845266,0.059145594932989425,0.0,0.0,0.0,0.0,0.0,0.0,0.0,0.0,0.0,0.0,0.0,0.05028812092916959,0.2600303628854536,0.4900994139636625,0.6659723469204525,0.7847826441828956,0.8529163061754191,0.8712874842880228,0.8483586085309913,0.7806134608792178,0.6610196052824892,0.4873634894464486,0.2683687294928092,0.06122855417163193,0.0,0.0,0.0,0.0,0.0,0.0,0.0,0.0,0.0,0.0,0.0,0.0538043389542761,0.2623745082355245,0.495048890775233,0.6752216000914151,0.8001567116668571,0.869984818557273,0.8886139179549127,0.9005990956430892,0.7925986385673942,0.6736577482492367,0.4980460014038754,0.27449027897941525,0.06357596434809579,0.0,0.0,0.0,0.0,0.0,0.0,0.0,0.0,0.0,0.0,0.0,0.05484581857359735,0.2609445142754534,0.4885355621214841,0.6634976085146672,0.7886906413751449,0.8560440098597757,0.8088411498718555,0.7896015279387518,0.7708026575686837,0.6568504219788113,0.4809774890220212,0.2658939910870239,0.06500922313455981,0.0,0.0,0.0,0.0,0.0,0.0,0.0,0.0,0.0,0.0,0.0,0.055368190796454386,0.2595112554889893,0.4713397215103087,0.6803016699586999,0.8060170750420346,0.7824384988328246,0.9041153136681956,0.8746731092574153,0.7984622667689645,0.6762630797107363,0.482802526975628,0.2671966568177737,0.06539773747530975,0.0,0.0,0.0,0.0,0.0,0.0,0.0,0.0,0.0,0.0,0.0,0.050546042214205264,0.2188641668979252,0.412974420085212,0.5901500187727517,0.4239181181540671,0.4554465466298829,0.7842602719600384,0.7724056873275763,0.7088329878058733,0.5234496155666922,0.4757668260990222,0.2339770482704582,0.06683099626177377,0.0,0.0,0.0,0.0,0.0,0.0,0.0,0.0,0.0,0.0,0.0,0.061359147227346186,0.2321520103168514,0.38379340178585997,0.5256631678610489,0.5418175288529031,0.6580257594802397,0.7337142297458332,0.6963254378948399,0.5552359653275437,0.3217812892799425,0.23319348993617264,0.16701545895297015,0.04820189686413424,0.0,0.0,0.0,0.0,0.0,0.0,0.0,0.0,0.0,0.0,0.0,0.014459916093961703,0.16701545895297015,0.30966551853605184,0.4147994580388188,0.589369725264859,0.6235002203757815,0.6986695832449109,0.8254297327739597,0.7473938523319023,0.6307971073638159,0.4611763169493462,0.25273674072381197,0.0698281068904161,0.0,0.0,0.0,0.0,0.0,0.0,0.0,0.0,0.0,0.0,0.0,0.04637685891052743,0.14577776326743827,0.3030215968265887,0.4351230023343509,0.4038557599699636,0.4183156760639252,0.6249334791622455,0.5967939404822148,0.6753521931471294,0.5449452325372598,0.4679508317145235,0.2602915489968821,0.07230284529620137,0.0,0.0,0.0,0.0,0.0,0.0,0.0,0.0,0.0,0.0,0.0,0.06279240601381021,0.25925006937756084,0.4854078584371276,0.6675329339362379,0.6231117060350315,0.8379340178586002,0.8542189719061688,0.8271241776718522,0.7545601462642223,0.33116113550661946,0.4742062390832368,0.26185540083906034,0.07152255178830866,0.0,0.0,0.0,0.0,0.0,0.0,0.0,0.0,0.0,0.0,0.0,0.06097063288659625,0.2569059240274898,0.4786333436719503,0.3934344341239655,0.6728741899149513,0.8632103037920957,0.8845720628805562,0.8266018054489952,0.6461679100213846,0.5078143619713021,0.3827519221665388,0.20727076837689154,0.05432671117713316,0.0,0.0,0.0,0.0,0.0,0.0,0.0,0.0,0.0,0.0,0.0,0.03738879185099332,0.009902218449533946,0.13991739989226076,0.27553502342512937,0.6231117060350315,0.42444049037692416,0.36972200003264827,0.5699570675329338,0.576600989242397,0.3002856723093749,0.20335950635824934,0.14499746975954553,0.0755611420362722,0.0,0.0,0.0,0.0,0.0,0.0,0.0,0.0,0.0,0.0,0.0,0.06787247588109503,0.2905140469155553,0.539342790447118,0.7295450464421553,0.8596908209405965,0.9326466315153692,0.9482786202843664,0.9133645668391585,0.8349401720563508,0.7046638045021956,0.5213633915016569,0.2851727909368419,0.07647202859987919,0.0,0.0,0.0,0.0,0.0,0.0,0.0,0.0,0.0,0.0,0.0,0.06800306893680927,0.27944302061737863,0.5022151847075531,0.6786072250608074,0.7971596010382147,0.8635988181328458,0.8811864379111641,0.8600826001077393,0.7834799784521458,0.6670138265397737,0.4929659315365905,0.2787900553388073,0.07621084248845067,0.0,0.0,0.0,0.0,0.0,0.0,0.0,0.0,0.0,0.0,0.0,0.038560864526028825,0.2751432442579866,0.4962209634502686,0.6714441959548799,0.7942930834652867,0.8622961524020959,0.8798837721804144,0.6193310370721037,0.7888212344308589,0.6637555297997029,0.4908797074715552,0.27592353776587925,0.07516936286912944,0.0,0.0,0.0,0.0,0.0,0.0,0.0,0.0,0.0,0.0,0.0,0.06787247588109503,0.2662857702541667,0.4809774890220212,0.6507288724922052,0.768497690135327,0.834026020666351,0.8516136404446694,0.7367113403744756,0.7687588762467555,0.15828531317847172,0.2490866648165984,0.2737099854715225,0.08038002579212851,0.0,0.0,0.0,0.0,0.0,0.0,0.0,0.0,0.0,0.0,0.0,0.0710001795654516,0.21769209422288968,0.4756362330433079,0.6433046572748493,0.7583375504007575,0.8239964739874956,0.7304591978321552,0.5561468518911507,0.2152173558171044,0.5794675068153251,0.3759774074013614,0.2699325813349875,0.08194387763430679,0.0,0.0,0.0,0.0,0.0,0.0,0.0,0.0,0.0,0.0,0.0,0.07035047911327315,0.26159421472763184,0.4740756460275225,0.6431740642191351,0.7613346610293997,0.8282962503468878,0.4616986891722033,0.8365040238985291,0.7556016258835436,0.6408266540426713,0.4742062390832368,0.2308493445861016,0.07998824662498571,0.0,0.0,0.0,0.0,0.0,0.0,0.0,0.0,0.0,0.0,0.0,0.06943632772327331,0.2668048776506309,0.4916632658058408,0.6689661927227021,0.7915571589480729,0.8616464519499175,0.8811864379111641,0.8595602278848822,0.7872573825886808,0.6650581955304526,0.4785027506162359,0.27488205814655803,0.08064121190355703,0.0,0.0,0.0,0.0,0.0,0.0,0.0,0.0,0.0,0.0,0.0,0.07021988605755887,0.2638077670219886,0.4744641603682724,0.6621916779575245,0.7903850862730374,0.8596908209405965,0.8784505133939502,0.8533080853425618,0.7804828678235034,0.6391354739711715,0.4723812011296299,0.2724073197407728,0.08129091235573548,0.0,0.0,0.0,0.0,0.0,0.0,0.0,0.0,0.0,0.0,0.0,0.043771527449027896,0.25508088607388296,0.432387077817137,0.5798592859824678,0.7557322189392579,0.7618537684258639,0.6972363244584469,0.7691506554138983,0.6516397590558122,0.5816810591096818,0.4228766385347459,0.2681075433813807,0.08233565680144958,0.0,0.0,0.0,0.0,0.0,0.0,0.0,0.0,0.0,0.0,0.0,0.07191106612905858,0.22303335020160298,0.4669093520952023,0.629886220800209,0.7423137824646173,0.8047144093112848,0.8263406193375668,0.8049755954227134,0.4442416624495992,0.5173248012536933,0.4618292822279175,0.2243360159323528,0.0858518748265561,0.0,0.0,0.0,0.0,0.0,0.0,0.0,0.0,0.0,0.0,0.0,0.07386669713837966,0.25638355180463274,0.4588321715992752,0.6223281477007461,0.7377528199937968,0.8035423366362494,0.8258182471147096,0.8018478917383568,0.7318891917922264,0.5401230839550107,0.4278261153463164,0.2049233582004277,0.07764410127491471,0.0,0.0,0.0,0.0,0.0,0.0,0.0,0.0,0.0,0.0,0.0,0.06344537129238152,0.2614636216719176,0.4102384955679981,0.5350430140877258,0.6717021172399158,0.578945134592468,0.6034378621916779,0.6426516919962781,0.5720432915979693,0.5665714425635416,0.41753538255603256,0.1629768687050066,0.07985765356927145,0.0,0.0,0.0,0.0,0.0,0.0,0.0,0.0,0.0,0.0,0.0,0.06070944677516772,0.24987022315088395,0.4047666465335705,0.5517197473024372,0.6730047829706656,0.7286341598785484,0.7850438302943241,0.7330645292936547,0.6709218237320229,0.6482541340864199,0.4846275649292349,0.2823095381903067,0.08011883968069998,0.0,0.0,0.0,0.0,0.0,0.0,0.0,0.0,0.0,0.0,0.0,0.06670040320605951,0.20453484385967774,0.4052890187564277,0.5491144158409377,0.6393933952562072,0.697758696681304,0.7503909629605445,0.7029693596043031,0.6931977342104834,0.5694379601364697,0.37558562823421865,0.2507811097144909,0.081552098467164,0.0,0.0,0.0,0.0,0.0,0.0,0.0,0.0,0.0,0.0,0.0,0.06683099626177377,0.2519531823895264,0.3633392644346137,0.5371292381527613,0.6069573450431772,0.5225387290030852,0.27761798266377186,0.5046899231133384,0.6332718457696012,0.5092476207577662,0.3982533178798217,0.24921725787231264,0.08272417114219953,0.0,0.0,0.0,0.0,0.0,0.0,0.0,0.0,0.0,0.0,0.0,0.06904781338252339,0.24557044679149184,0.43395092965931537,0.5448146394815455,0.669488564945559,0.698281068904161,0.7569042916142934,0.6818655218008782,0.6042214205259635,0.4833248991984851,0.3811880703243605,0.2429651153299923,0.032958422435886967,0.0,0.0,0.0,0.0,0.0,0.0,0.0,0.0,0.0,0.0,0.0,0.06305359212523873,0.2631580665698101,0.4693840905009876,0.6327494735467439,0.7454382213225812,0.8094059648378197,0.8279044711797451,0.8064088542091774,0.7398390440588322,0.6314468078159943,0.4740756460275225,0.27800976183091464,0.08923749979594835,0.0,0.0,0.0,0.0,0.0,0.0,0.0,0.0,0.0,0.0,0.0,0.0647480370231313,0.26159421472763184,0.4626095757358102,0.6254558513851026,0.7385363783280824,0.8011981912861783,0.3905679165510374,0.4452831420689205,0.5527612269217583,0.6244143717657813,0.4631319479586672,0.27279909890791554,0.08285476419791378,0.0,0.0,0.0,0.0,0.0,0.0,0.0,0.0,0.0,0.0,0.0,0.07581906332130789,0.14304183875022447,0.4524494360012406,0.6121680079661763,0.7249873487977276,0.6124291940776049,0.5715209193751122,0.3574789010594361,0.08637424704941314,0.2906446399712695,0.31982892309701433,0.22576927471881686,0.08454920909580632,0.0,0.0,0.0,0.0,0.0,0.0,0.0,0.0,0.0,0.0,0.0,0.06969751383470184,0.2683687294928092,0.4838440065949493,0.6543756835730259,0.7733198387175761,0.8413229076543853,0.8615158588942032,0.7218596451133711,0.7790496090370395,0.659586346496025,0.4963515565059828,0.2926002709805906,0.09028224424166244,0.0,0.0,0.0,0.0,0.0,0.0,0.0,0.0,0.0,0.0,0.0,0.07295581057477267,0.25911947632184656,0.4592239507664179,0.6189425227313538,0.7312394913400481,0.7949427839174651,0.817091366166604,0.799111967221143,0.7351474885322973,0.6275388106237451,0.3445795719812599,0.23501852788977945,0.09353727615534042,0.0,0.0,0.0,0.0,0.0,0.0,0.0,0.0,0.0,0.0,0.0,0.07126136567688013,0.26250510129123883,0.2974191547364469,0.6288414763544948,0.4088052367815341,0.8125304036957834,0.8209993633588533,0.6264973310044238,0.7400969653438677,0.6297556277444947,0.4777224571083433,0.2841313113175207,0.09223461042459068,0.0,0.0,0.0,0.0,0.0,0.0,0.0,0.0,0.0,0.0,0.0,0.07126136567688013,0.25976917677402506,0.46209046833934597,0.6254558513851026,0.7311088982843337,0.5995298649994286,0.8264712123932809,0.7965066357596434,0.7334530436344047,0.6266279240601379,0.4709479423431658,0.2816565729117354,0.0948399418860902,0.0,0.0,0.0,0.0,0.0,0.0,0.0,0.0,0.0,0.0,0.0,0.07360551102695115,0.18590247963564535,0.4573989128128112,0.6146427463719616,0.7242037904634421,0.7886906413751449,0.8079727060513557,0.78361057150786,0.7208181654940498,0.4536215086762762,0.32152010316851404,0.2678463572699521,0.0870239475015916,0.0,0.0,0.0,0.0,0.0,0.0,0.0,0.0,0.0,0.0,0.0,0.07360551102695115,0.2558611795817757,0.4523188429455264,0.6137318598083547,0.7269397149806558,0.4319952986499943,0.5768621753538256,0.12662955647333451,0.6971057314027327,0.6236308134314957,0.4857996376042704,0.2892113811848055,0.08962927896309113,0.0,0.0,0.0,0.0,0.0,0.0,0.0,0.0,0.0,0.0,0.0,0.07204165918477284,0.2569059240274898,0.4607878026085962,0.6225893338121745,0.7376222269380825,0.5556277444946864,0.834026020666351,0.6615419775053462,0.31422648100687245,0.03348079465874402,0.05119900749277657,0.047291010300527264,0.027747759512887903,0.0,0.0,0.0,0.0,0.0,0.0,0.0,0.0,0.0,0.0,0.0,0.07204165918477284,0.2571638453125255,0.4550547674627402,0.6181589643970682,0.7330645292936547,0.6879870712874843,0.3576062292887576,0.5350430140877258,0.7443967417032599,0.6279305897908878,0.4751171256468437,0.24517866762434906,0.0997926835240536,0.0,0.0,0.0,0.0,0.0,0.0,0.0,0.0,0.0,0.0,0.0,0.0410356029318141,0.2515614032223837,0.4471081800225273,0.4938768181001975,0.7260288284170489,0.5102923652034803,0.3212621818834783,0.4851466723256991,0.6195922231835321,0.4102384955679981,0.11229696860869423,0.007166293932320149,0.09236520348030493,0.0,0.0,0.0,0.0,0.0,0.0,0.0,0.0,0.0,0.0,0.0,0.07204165918477284,0.254169999510276,0.4562268401377757,0.6220669615893175,0.7264206075841917,0.570479439755791,0.40698346365432014,0.6012243098973211,0.6281917759023163,0.6284529620137449,0.4609151308379176,0.12219918705822815,0.05549878385216865,0.0,0.0,0.0,0.0,0.0,0.0,0.0,0.0,0.0,0.0,0.0,0.07191106612905858,0.25495029301816874,0.4544018021841689,0.6175092639448897,0.7322809709593693,0.5345239066912617,0.18590247963564535,0.7126103919424085,0.6456488026249203,0.4717282358510586,0.05588729819291858,0.0979676455704468,0.07086958650973735,0.0,0.0,0.0,0.0,0.0,0.0,0.0,0.0,0.0,0.0,0.0,0.044424492727599206,0.16076005158425702,0.1341843647464046,0.14603894937886674,0.2429651153299923,0.3457516446562954,0.6688355996669877,0.5867643938033595,0.17769797091039682,0.033872573825886806,0.1513802053575801,0.10982223020290896,0.06618129580959532,0.0,0.0,0.0,0.0,0.0,0.0,0.0,0.0,0.0,0.0,0.0,0.07008929300184462,0.254558513851026,0.4553159535741687,0.6215478541928533,0.7240731974077278,0.6495567998171696,0.8163110726587114,0.7914265658923586,0.7269397149806558,0.6220669615893175,0.4826719339199138,0.2911670121941266,0.09549290716466152,0.0009108865636069805,0.0,0.0,0.0,0.0,0.0,0.0,0.0,0.0,0.0,0.0,0.0616203333387747,0.254558513851026,0.4631319479586672,0.6327494735467439,0.7554710328278293,0.6020046034052139,0.7536459948742225,0.5776424688617182,0.6793907833950931,0.6078682316067843,0.4894464486850911,0.2883004946211985,0.10565304689923112,0.0009108865636069805,0.0,0.0,0.0,0.0,0.0,0.0,0.0,0.0,0.0,0.0,0.05732055697938261,0.25286733377952625,0.4510161772147766,0.5686544018021841,0.7245955696305848,0.6994531415791965,0.6701415302241303,0.7494768115705447,0.5155030281264793,0.5383013108277966,0.4825413408641995,0.29351115754419754,0.09536231410894724,0.0010414796193212426,0.0,0.0,0.0,0.0,0.0,0.0,0.0,0.0,0.0,0.0,0.06839484810395208,0.2621165869504889,0.4697758696681304,0.6320997730945657,0.6753521931471294,0.7113077262116587,0.8723289639073442,0.8431479456079923,0.7780081294177182,0.6688355996669877,0.4943959254966617,0.300808044532232,0.0936678692110547,0.0019556310093210797,0.0,0.0,0.0,0.0,0.0,0.0,0.0,0.0,0.0,0.0,0.05992588844088216,0.21169787296560505,0.3817071777208247,0.5540638926525081,0.6520315382229549,0.7097438743694804,0.7497379976819732,0.799111967221143,0.7324115640150834,0.6289720694102091,0.4791557158948073,0.2915587913612693,0.09666497983969702,0.0007802935078927177,0.0,0.0,0.0,0.0,0.0,0.0,0.0,0.0,0.0,0.0,0.06357596434809579,0.2348879348340652,0.37897451803000376,0.3656834097846847,0.3104490768703374,0.5067728823519809,0.6922868476468764,0.5067728823519809,0.6422599128291353,0.5194110253187286,0.4050278326449991,0.10135327053983904,0.08298535725362803,0.0,0.0,0.0,0.0,0.0,0.0,0.0,0.0,0.0,0.0,0.0,0.0616203333387747,0.1945020323544296,0.4593545438221322,0.2251163094402455,0.08337713642077083,0.061097961115917664,0.24987022315088395,0.4697758696681304,0.7967678218710721,0.5759512887902185,0.3716776310419693,0.2648525114677027,0.10708630568569516,0.002082959238642485,0.0,0.0,0.0,0.0,0.0,0.0,0.0,0.0,0.0,0.0,0.0,0.058623222710132386,0.2347573417783509,0.3600842325209357,0.649687392872884,0.7548180675492581,0.8647708908078813,0.7199040141040499,0.6350968837232079,0.3486181622292234,0.43316737132502975,0.22459720204378134,0.09627320067255422,0.0010414796193212426,0.0,0.0,0.0,0.0,0.0,0.0,0.0,0.0,0.0,0.0,0.057973522257953936,0.25091170277020514,0.3810574772686462,0.6143815602605329,0.7251179418534419,0.7918183450595014,0.7229011247326923,0.6862926263895917,0.7393166718359752,0.6263667379487096,0.4779836432197718,0.2933805644884833,0.09940090435691082,0.0019556310093210797,0.0,0.0,0.0,0.0,0.0,0.0,0.0,0.0,0.0,0.0,0.06735336848463082,0.2484369643644199,0.4495829184283126,0.6126871153626406,0.7301980117207267,0.8028926361840708,0.8245155813839599,0.4855384514928418,0.7549486606049722,0.638874287859743,0.4633931340700958,0.2988524135229109,0.09953149741262507,0.003127703684356584,0.0,0.0,0.0,0.0,0.0,0.0,0.0,0.0,0.0,0.0,0.06279240601381021,0.24726489168938445,0.4527106221126692,0.5329600548490834,0.4075025710507844,0.16271568259357808,0.8568243033676683,0.809014185670677,0.7790496090370395,0.545986712156581,0.16219331037072104,0.23319348993617264,0.10044238397623206,0.003127703684356584,0.0,0.0,0.0,0.0,0.0,0.0,0.0,0.0,0.0,0.0,0.06526714441959547,0.2438760018935993,0.4467164008553845,0.6146427463719616,0.7404887445110105,0.8101862583457125,0.8332457271584582,0.13105666106204802,0.09575409327609004,0.2950750093863759,0.3802771837607535,0.20935372761553406,0.07060840039830882,0.0,0.0,0.0,0.0,0.0,0.0,0.0,0.0,0.0,0.0,0.0,0.056017891248632865,0.2442677810607421,0.4485414388089913,0.617639857000604,0.7381445991609396,0.17339819455100472,0.15528820254982942,0.14838309472893774,0.27592353776587925,0.3585203806787574,0.3826213291108245,0.29129760524984083,0.1003117909205178,0.0,0.0,0.0,0.0,0.0,0.0,0.0,0.0,0.0,0.0,0.0,0.0398635302567786,0.22381364370949566,0.4287370019099234,0.6142509672048189,0.5187580600401573,0.2251163094402455,0.6043520135816778,0.6249334791622455,0.4943959254966617,0.5074258476305522,0.2454398537357776,0.2955973816092329,0.056409670415775624,0.0,0.0,0.0,0.0,0.0,0.0,0.0,0.0,0.0,0.0,0.0,0.06995869994613038,0.14043650728872492,0.3604727468616856,0.479025122839093,0.02722865211642371,0.06279240601381021,0.08962927896309113,0.19280758745653695,0.4093276090043912,0.6146427463719616,0.39460650679900094,0.013549029530354723,0.1014838635955533,0.0,0.0,0.0,0.0,0.0,0.0,0.0,0.0,0.0,0.0,0.0,0.06097063288659625,0.241401263487814,0.4402030722016356,0.6055240862567133,0.7170407613575148,0.8153969212687115,0.8389787623043145,0.7843908650157527,0.7236846830669779,0.5358265724220115,0.4712091284545945,0.2884310876769128,0.11177786121223003,0.0,0.0,0.0,0.0,0.0,0.0,0.0,0.0,0.0,0.0,0.0,0.06422566480027424,0.2322826033725657,0.4219624871447461,0.5975774988165004,0.7239426043520135,0.6272776245123165,0.6847320393738062,0.8077115199399272,0.7385363783280824,0.6257170374965311,0.4600042442743106,0.2825674594753424,0.09679557289541127,0.0,0.0,0.0,0.0,0.0,0.0,0.0,0.0,0.0,0.0,0.0,0.06331477823666726,0.2342349695554939,0.4260010773927096,0.5872835011998236,0.6291026624659234,0.7221208312247995,0.6960642517834114,0.6872067777795915,0.6172480778334611,0.5375177524935112,0.41453827192739023,0.28113420068887834,0.10565304689923112,0.0,0.0,0.0,0.0,0.0,0.0,0.0,0.0,0.0,0.0,0.0,0.06070944677516772,0.2296772719110661,0.4168824172774612,0.574256843892326,0.6965866240062684,0.5835060970632886,0.4868411172235916,0.7823079057771102,0.11920207642958584,0.1883804828678235,0.21169787296560505,0.2928614570920191,0.09835942473758956,0.0,0.0,0.0,0.0,0.0,0.0,0.0,0.0,0.0,0.0,0.0,0.061097961115917664,0.2308493445861016,0.4206598214139963,0.578945134592468,0.6948921791083759,0.7641979137759349,0.5179777665322646,0.4861914167714132,0.7269397149806558,0.6163371912698542,0.4709479423431658,0.2931226432034476,0.11164726815651578,0.0007802935078927177,0.0,0.0,0.0,0.0,0.0,0.0,0.0,0.0,0.0,0.0,0.05758174309081115,0.2344961556669224,0.43277559215788697,0.5983577923243931,0.7163877960789434,0.7843908650157527,0.7301980117207267,0.6904618096932695,0.4235263389869243,0.5495029301816876,0.4375977407401361,0.2760541308215936,0.10930312280644476,0.0007802935078927177,0.0,0.0,0.0,0.0,0.0,0.0,0.0,0.0,0.0,0.0,0.055368190796454386,0.22224979186731744,0.3507043862942588,0.5312656099511908,0.6564619076380613,0.6320997730945657,0.6517703521115263,0.474725346479701,0.5779036549731468,0.4868411172235916,0.4252207838848169,0.27566561648084364,0.03804175712956463,0.0,0.0,0.0,0.0,0.0,0.0,0.0,0.0,0.0,0.0,0.0,0.014071401753211771,0.07464699064627238,0.20935372761553406,0.2424427431071353,0.4955712629980901,0.6912453680275551,0.644995837346349,0.6414796193212425,0.5832449109518602,0.4477578804747057,0.3112293703782301,0.2373626732398505,0.0913237238609837,0.0,0.0,0.0,0.0,0.0,0.0,0.0,0.0,0.0,0.0,0.0,0.0570593708679541,0.14577776326743827,0.22576927471881686,0.3908291026624659,0.5935389085685369,0.5982271992686788,0.5586248551233288,0.6968478101176969,0.6882482573989127,0.5152418420150509,0.4094582020601055,0.21169787296560505,0.07516936286912944,0.0,0.0,0.0,0.0,0.0,0.0,0.0,0.0,0.0,0.0,0.0,0.0487242690869913,0.22277216409017447,0.4095887951158197,0.5699570675329338,0.52045250493805,0.6048711209781421,0.26302747351409583,0.7479162245547593,0.6638861228554171,0.4821528265234497,0.12350185278897795,0.05445403940645455,0.0,0.0,0.0,0.0,0.0,0.0,0.0,0.0,0.0,0.0,0.0,0.0,0.056670856527204175,0.22303335020160298,0.4099773094565696,0.5749065443445045,0.701536100817839,0.43173411253856575,0.7054440980100883,0.7123492058309798,0.4541438808991332,0.5673517360714343,0.36985259308836255,0.2471342986336701,0.0710001795654516,0.0,0.0,0.0,0.0,0.0,0.0,0.0,0.0,0.0,0.0,0.0,0.053281966731419064,0.22615778905956674,0.42652344961556665,0.5239687229631564,0.6078682316067843,0.6418713984883854,0.5238413947338351,0.4976542222367326,0.6193310370721037,0.6285802902430663,0.4253513769405311,0.2773567965523433,0.10851956447215916,0.0007802935078927177,0.0,0.0,0.0,0.0,0.0,0.0,0.0,0.0,0.0,0.0,0.05484581857359735,0.2236830506537815,0.41935715568324655,0.5866338007476452,0.7071385429079808,0.779310795148468,0.7089635808615876,0.7978093014903932,0.7347557093651544,0.6328800666024584,0.4816304543005925,0.2937723436556261,0.09966209046833932,0.0,0.0,0.0,0.0,0.0,0.0,0.0,0.0,0.0,0.0,0.0,0.05393493200999037,0.22277216409017447,0.3664669681189702,0.5057314027326596,0.4712091284545945,0.19385233190225107,0.12819014348911995,0.3156597397933365,0.6206337028028535,0.4547935813513116,0.3742829625034689,0.29181671264630504,0.08024943273641423,0.0,0.0,0.0,0.0,0.0,0.0,0.0,0.0,0.0,0.0,0.0,0.04637685891052743,0.15698264744772195,0.42691522878270943,0.2428345222742781,0.5756901026787901,0.572301212883005,0.13470673696926164,0.1959352911408936,0.3738911833363261,0.3629474852674709,0.2896031603519483,0.1614130168628283,0.031528428475815794,0.0,0.0,0.0,0.0,0.0,0.0,0.0,0.0,0.0,0.0,0.0,0.0238397623206386,0.16597071450725606,0.060187074552310676,0.16154360991854255,0.19385233190225107,0.36776963384972,0.3841851809530028,0.42652344961556665,0.4507549911033481,0.4557044679149186,0.05732055697938261,0.1442171762516528,0.08975987201880539,0.0,0.0,0.0,0.0,0.0,0.0,0.0,0.0,0.0,0.0,0.0,0.017457026722604026,0.13197081245204784,0.1991935878809644,0.3324638012373692,0.7602899165836856,0.638874287859743,0.8329845410470298,0.5501558954602589,0.34536313031554544,0.6036990483031064,0.4908797074715552,0.29754974779216115,0.10370068071630292,0.0,0.0,0.0,0.0,0.0,0.0,0.0,0.0,0.0,0.0,0.0,0.04364093439331364,0.22798282701317354,0.4443722555053135,0.6393933952562072,0.7691506554138983,0.3381968363832253,0.7025775804371602,0.8269935846161379,0.7602899165836856,0.657242201145954,0.5006513328653749,0.22707194044956655,0.09510112799751873,0.0,0.0,0.0,0.0,0.0,0.0,0.0,0.0,0.0,0.0,0.0,0.04742160335624153,0.2243360159323528,0.43030085375210175,0.6009631237858927,0.7205569793826213,0.7927292316231084,0.5694379601364697,0.8051061884784276,0.4989568879674823,0.6404381397019213,0.4830637130870566,0.2927308640363049,0.10552245384351686,0.0,0.0,0.0,0.0,0.0,0.0,0.0,0.0,0.0,0.0,0.0,0.05002693481774106,0.21834179467506806,0.3557844561615436,0.5345239066912617,0.6297556277444947,0.7038802461679101,0.7985928598246788,0.779310795148468,0.35865097373447163,0.4687343900488091,0.4745947534239867,0.2879087154540557,0.09184609608384074,0.0,0.0,0.0,0.0,0.0,0.0,0.0,0.0,0.0,0.0,0.0,0.04820189686413424,0.21469498359424735,0.4107608677908552,0.5797286929267537,0.7008864003656605,0.7729280595504333,0.7978093014903932,0.7912959728366444,0.7301980117207267,0.6283223689580306,0.4786333436719503,0.2888228668440556,0.1025286080412674,0.0,0.0,0.0,0.0,0.0,0.0,0.0,0.0,0.0,0.0,0.0,0.04299123394113517,0.21625883543642568,0.4239181181540671,0.5969245335379291,0.5328294617933691,0.2873896080575915,0.8314206892048515,0.8028926361840708,0.7712336146525408,0.6646696811897027,0.5063843680112311,0.2988524135229109,0.09549290716466152,0.0,0.0,0.0,0.0,0.0,0.0,0.0,0.0,0.0,0.0,0.0,0.03869145758174309,0.21534468404642584,0.3953868003068937,0.4133661992523547,0.19267699440082275,0.4916632658058408,0.7072691359636951,0.6405687327576356,0.5298323511647268,0.5270964266475129,0.3585203806787574,0.2424427431071353,0.09458202060105453,0.0,0.0,0.0,0.0,0.0,0.0,0.0,0.0,0.0,0.0,0.0,0.03608612612024355,0.17613411906821852,0.36464193016536345,0.5471587848316166,0.6042214205259635,0.7050523188429455,0.8176137383894612,0.6849899606588419,0.6307971073638159,0.5832449109518602,0.4779836432197718,0.2496090370394554,0.08989046507451966,0.0,0.0,0.0,0.0,0.0,0.0,0.0,0.0,0.0,0.0,0.0,0.03738879185099332,0.2145643905385331,0.4274343361791737,0.5999216441665713,0.7217290520576568,0.7932516038459654,0.5716515124308265,0.10357008766058863,0.3578674154001861,0.6125565223069
...